Circuit: * D:\GitHub\ECE2274\Lab12\Draft3.asc

Direct Newton iteration for .op point succeeded.

Date: Wed Oct 31 17:19:54 2018
Total elapsed time: 0.070 seconds.

tnom = 27
temp = 27
method = modified trap
totiter = 2115
traniter = 2110
tranpoints = 1047
accept = 1028
rejected = 19
matrix size = 3
fillins = 0
solver = Normal
Matrix Compiler1: 32 bytes object code size  0.0/0.0/[0.0]
Matrix Compiler2: 121 bytes object code size  0.0/0.1/[0.0]

