Circuit: * D:\GitHub\ECE2274\Lab10\plt2.asc

Warning: Multiple definitions of model "bc817-40t116" Type: BJT
Warning: Multiple definitions of model "bc817-25t116" Type: BJT
Warning: Multiple definitions of model "bc847bt116" Type: BJT
Warning: Multiple definitions of model "bc807-40t116" Type: BJT
Warning: Multiple definitions of model "bc807-25t116" Type: BJT
Warning: Multiple definitions of model "bc857bt116" Type: BJT

Date: Wed Oct 17 19:17:59 2018
Total elapsed time: 0.059 seconds.

tnom = 27
temp = 27
method = trap
totiter = 239
traniter = 0
tranpoints = 0
accept = 0
rejected = 0
matrix size = 15
fillins = 0
solver = Normal
Matrix Compiler1: 828 bytes object code size  0.3/0.1/[0.1]
Matrix Compiler2: off  [0.1]/0.2/0.1

