Circuit: * D:\GitHub\ECE2274\Lab11\Draft2.asc

Direct Newton iteration for .op point succeeded.

Date: Thu Oct 25 09:40:46 2018
Total elapsed time: 0.060 seconds.

tnom = 27
temp = 27
method = modified trap
totiter = 2107
traniter = 2104
tranpoints = 1053
accept = 1052
rejected = 1
matrix size = 3
fillins = 0
solver = Normal
Matrix Compiler1:       4 opcodes  0.1/[0.1]/0.1
Matrix Compiler2: off  [0.0]/0.0/0.0

