Circuit: * D:\GitHub\ECE2274\Lab11\Draft1.asc

.OP point found by inspection.

Date: Thu Oct 25 10:12:55 2018
Total elapsed time: 0.050 seconds.

tnom = 27
temp = 27
method = modified trap
totiter = 2102
traniter = 2102
tranpoints = 1052
accept = 1052
rejected = 0
matrix size = 4
fillins = 1
solver = Normal
Matrix Compiler1: 226 bytes object code size  0.1/0.0/[0.0]
Matrix Compiler2:      24 opcodes  0.1/[0.0]/0.1

