Stray ".ends" card: .ends
Circuit: * D:\GitHub\ECE2274\Lab8\PreLab1.asc

.step vgs=1
.step vgs=1.2
.step vgs=1.4
.step vgs=1.6
.step vgs=1.8
.step vgs=2
.step vgs=2.2
.step vgs=2.4
.step vgs=2.6
.step vgs=2.8
.step vgs=3

Date: Wed Oct 03 15:54:05 2018
Total elapsed time: 2.551 seconds.

tnom = 27
temp = 27
method = trap
totiter = 207
traniter = 0
tranpoints = 0
accept = 0
rejected = 0
matrix size = 6
fillins = 0
solver = Normal
Matrix Compiler1: 200 bytes object code size  0.0/0.0/[0.0]
Matrix Compiler2: off  [0.0]/0.1/0.1

