Stray ".ends" card: .ends
Stray ".ends" card: .ends
Circuit: * D:\GitHub\ECE2274\Lab11\PreLab3.asc


Date: Wed Oct 24 17:39:51 2018
Total elapsed time: 0.069 seconds.

tnom = 27
temp = 27
method = trap
totiter = 201
traniter = 0
tranpoints = 0
accept = 0
rejected = 0
matrix size = 10
fillins = 2
solver = Normal
Matrix Compiler1: 918 bytes object code size  0.2/0.1/[0.1]
Matrix Compiler2: 890 bytes object code size  0.0/0.1/[0.0]

