Stray ".ends" card: .ends
Stray ".ends" card: .ends
Circuit: * D:\GitHub\ECE2274\Lab11\PreLab3-1.asc

Direct Newton iteration for .op point succeeded.

Date: Wed Oct 24 17:22:22 2018
Total elapsed time: 0.076 seconds.

tnom = 27
temp = 27
method = modified trap
totiter = 2488
traniter = 2481
tranpoints = 1226
accept = 1169
rejected = 57
matrix size = 10
fillins = 2
solver = Normal
Matrix Compiler1: 918 bytes object code size  0.1/0.2/[0.1]
Matrix Compiler2: off  [0.1]/0.7/0.1

