Circuit: * D:\GitHub\ECE2274\Lab7\Pre1.asc

.OP point found by inspection.

Date: Wed Sep 26 17:11:53 2018
Total elapsed time: 0.091 seconds.

tnom = 27
temp = 27
method = trap
totiter = 108
traniter = 0
tranpoints = 0
accept = 0
rejected = 0
matrix size = 7
fillins = 0
solver = Normal
Matrix Compiler1:      13 opcodes  0.1/[0.0]/0.1
Matrix Compiler2: off  [0.0]/0.1/0.1

