Circuit: * D:\GitHub\ECE2274\Lab7\Pre2.asc

.OP point found by inspection.

Date: Wed Sep 26 17:10:27 2018
Total elapsed time: 0.047 seconds.

tnom = 27
temp = 27
method = trap
totiter = 108
traniter = 0
tranpoints = 0
accept = 0
rejected = 0
matrix size = 7
fillins = 0
solver = Normal
Matrix Compiler1: 214 bytes object code size  0.1/0.1/[0.0]
Matrix Compiler2: 447 bytes object code size  0.0/0.0/[0.0]

