Stray ".ends" card: .ends
Circuit: * D:\GitHub\ECE2274\Lab9\PL3.asc


Date: Wed Oct 10 17:15:27 2018
Total elapsed time: 0.071 seconds.

tnom = 27
temp = 27
method = trap
totiter = 412
traniter = 0
tranpoints = 0
accept = 0
rejected = 0
matrix size = 8
fillins = 0
solver = Normal
Matrix Compiler1: off  [0.1]/0.1/0.1
Matrix Compiler2: 560 bytes object code size  0.1/0.1/[0.0]

