Circuit: * D:\GitHub\ECE2274\Lab5\PreLab1.asc

.OP point found by inspection.

Date: Wed Sep 19 14:38:29 2018
Total elapsed time: 0.060 seconds.

tnom = 27
temp = 27
method = trap
totiter = 161
traniter = 0
tranpoints = 0
accept = 0
rejected = 0
matrix size = 4
fillins = 0
solver = Normal
Matrix Compiler1:       8 opcodes  0.2/[0.0]/0.0
Matrix Compiler2: off  [0.0]/0.0/0.1

