Circuit: * D:\GitHub\ECE2274\Lab5\PreLab2.asc

.OP point found by inspection.

Date: Wed Sep 19 16:22:10 2018
Total elapsed time: 0.166 seconds.

tnom = 27
temp = 27
method = modified trap
totiter = 2110
traniter = 2110
tranpoints = 1044
accept = 1044
rejected = 0
matrix size = 4
fillins = 0
solver = Normal
Matrix Compiler1: 118 bytes object code size  0.1/0.1/[0.0]
Matrix Compiler2:      21 opcodes  0.6/[0.0]/0.6

