Stray ".ends" card: .ends
Circuit: * D:\GitHub\ECE2274\Lab8\PreLab4.asc


Date: Wed Oct 03 16:52:35 2018
Total elapsed time: 0.086 seconds.

tnom = 27
temp = 27
method = trap
totiter = 113
traniter = 0
tranpoints = 0
accept = 0
rejected = 0
matrix size = 7
fillins = 0
solver = Normal
Matrix Compiler1: 214 bytes object code size  0.1/0.1/[0.0]
Matrix Compiler2: 487 bytes object code size  0.1/0.1/[0.1]

