Circuit: * D:\GitHub\ECE2274\Lab12\Draft1.asc

.step ib=2e-006
.step ib=4e-006
.step ib=6e-006
.step ib=8e-006
.step ib=1e-005

Date: Fri Nov 02 12:38:27 2018
Total elapsed time: 0.089 seconds.

tnom = 27
temp = 27
method = trap
totiter = 1074
traniter = 0
tranpoints = 0
accept = 0
rejected = 0
matrix size = 5
fillins = 0
solver = Normal
Matrix Compiler1:      13 opcodes  0.1/[0.0]/0.0
Matrix Compiler2: off  [0.0]/0.1/0.1

