Circuit: * D:\GitHub\ECE2274\Lab12\PL1.asc


Date: Wed Oct 31 16:22:27 2018
Total elapsed time: 0.191 seconds.

tnom = 27
temp = 27
method = trap
totiter = 10008
traniter = 0
tranpoints = 0
accept = 0
rejected = 0
matrix size = 9
fillins = 0
solver = Normal
Matrix Compiler1: 456 bytes object code size  0.1/0.1/[0.1]
Matrix Compiler2: off  [0.1]/0.1/0.1

