Circuit: * D:\GitHub\ECE2274\Lab5\PreLab4.asc

.OP point found by inspection.

Date: Wed Sep 19 17:00:30 2018
Total elapsed time: 0.115 seconds.

tnom = 27
temp = 27
method = modified trap
totiter = 2127
traniter = 2127
tranpoints = 1058
accept = 1058
rejected = 0
matrix size = 4
fillins = 0
solver = Normal
Matrix Compiler1: 100 bytes object code size  0.1/0.1/[0.0]
Matrix Compiler2: 248 bytes object code size  0.8/0.1/[0.1]

