Circuit: * D:\GitHub\ECE2274\Lab5\PreLab5.asc

WARNING: Node NC_01 is floating.

WARNING: Less than two connections to node NC_01.  This node is used by C1.
.OP point found by inspection.

Date: Wed Sep 19 16:53:54 2018
Total elapsed time: 0.076 seconds.

tnom = 27
temp = 27
method = modified trap
totiter = 2102
traniter = 2102
tranpoints = 1042
accept = 1042
rejected = 0
matrix size = 9
fillins = 5
solver = Normal
Matrix Compiler1: 586 bytes object code size  0.1/0.1/[0.1]
Matrix Compiler2: 695 bytes object code size  0.0/0.1/[0.0]

