Circuit: * D:\GitHub\ECE2274\Lab5\PreLab6.asc

.OP point found by inspection.

Date: Wed Sep 19 16:58:34 2018
Total elapsed time: 0.063 seconds.

tnom = 27
temp = 27
method = modified trap
totiter = 2113
traniter = 2113
tranpoints = 1055
accept = 1053
rejected = 2
matrix size = 8
fillins = 5
solver = Normal
Matrix Compiler1: 572 bytes object code size  0.1/0.1/[0.0]
Matrix Compiler2: 656 bytes object code size  0.1/0.1/[0.1]

