Circuit: * D:\GitHub\ECE2274\Lab9\Draft1.asc

.OP point found by inspection.
.step ib=0
.step ib=5e-006
.step ib=1e-005
.step ib=1.5e-005
.step ib=2e-005
.step ib=2.5e-005
.step ib=3e-005
.step ib=3.5e-005
.step ib=4e-005
.step ib=4.5e-005
.step ib=5e-005

Date: Wed Oct 17 17:10:13 2018
Total elapsed time: 0.535 seconds.

tnom = 27
temp = 27
method = trap
totiter = 2796
traniter = 0
tranpoints = 0
accept = 0
rejected = 0
matrix size = 7
fillins = 0
solver = Normal
Matrix Compiler1:      23 opcodes  0.1/[0.1]/0.1
Matrix Compiler2: 535 bytes object code size  0.1/0.1/[0.1]

