Stray ".ends" card: .ends
Circuit: * D:\GitHub\ECE2274\Lab9\PL2.asc


Date: Wed Oct 10 17:16:16 2018
Total elapsed time: 0.070 seconds.

tnom = 27
temp = 27
method = trap
totiter = 412
traniter = 0
tranpoints = 0
accept = 0
rejected = 0
matrix size = 8
fillins = 0
solver = Normal
Matrix Compiler1:      19 opcodes  0.1/[0.1]/0.1
Matrix Compiler2: 560 bytes object code size  0.1/0.1/[0.1]

