Circuit: * D:\GitHub\ECE2274\Lab3\PL1.asc


Date: Wed Sep 05 12:47:01 2018
Total elapsed time: 0.056 seconds.

tnom = 27
temp = 27
method = trap
totiter = 0
traniter = 0
tranpoints = 0
accept = 0
rejected = 0
matrix size = 3
fillins = 0
solver = Normal

