Circuit: * D:\GitHub\ECE2274\Lab3\PL4.asc

Direct Newton iteration for .op point succeeded.

Date: Wed Sep 05 16:39:39 2018
Total elapsed time: 0.056 seconds.

tnom = 27
temp = 27
method = trap
totiter = 11
traniter = 0
tranpoints = 0
accept = 0
rejected = 0
matrix size = 38
fillins = 28
solver = Normal
Matrix Compiler1:     171 opcodes
Matrix Compiler2: 3.54 KB object code size
