Circuit: * D:\GitHub\ECE2274\Lab3\PL5.asc

Direct Newton iteration for .op point succeeded.

Date: Wed Sep 05 16:36:59 2018
Total elapsed time: 0.172 seconds.

tnom = 27
temp = 27
method = modified trap
totiter = 231
traniter = 220
tranpoints = 101
accept = 81
rejected = 20
matrix size = 38
fillins = 29
solver = Normal
Matrix Compiler1: 3.02 KB object code size  1.3/0.4/[0.2]
Matrix Compiler2: off  [0.3]/0.4/1.0

