Circuit: * D:\GitHub\ECE2274\Lab3\Draft1.asc

Direct Newton iteration for .op point succeeded.

Date: Sun Sep 09 22:54:15 2018
Total elapsed time: 0.090 seconds.

tnom = 27
temp = 27
method = modified trap
totiter = 2119
traniter = 2116
tranpoints = 1058
accept = 1058
rejected = 0
matrix size = 5
fillins = 0
solver = Normal
Matrix Compiler1: 114 bytes object code size  0.0/0.0/[0.0]
Matrix Compiler2: off  [0.0]/0.1/0.6

