Circuit: * D:\GitHub\ECE2274\Lab3\PL3.asc


Date: Wed Sep 05 16:42:47 2018
Total elapsed time: 0.041 seconds.

tnom = 27
temp = 27
method = trap
totiter = 60
traniter = 0
tranpoints = 0
accept = 0
rejected = 0
matrix size = 38
fillins = 27
solver = Normal
Matrix Compiler1: 2.98 KB object code size
Matrix Compiler2: 3.48 KB object code size
