Circuit: * D:\GitHub\ECE2274\Lab3\PL6.asc

Direct Newton iteration for .op point succeeded.

Date: Wed Sep 05 16:32:11 2018
Total elapsed time: 0.088 seconds.

tnom = 27
temp = 27
method = modified trap
totiter = 817
traniter = 806
tranpoints = 273
accept = 200
rejected = 73
matrix size = 38
fillins = 29
solver = Normal
Matrix Compiler1: 3.02 KB object code size  0.7/0.9/[0.2]
Matrix Compiler2: 3.55 KB object code size  0.3/0.4/[0.2]

