Circuit: * D:\GitHub\ECE2274\Lab7\Draft2.asc

Direct Newton iteration for .op point succeeded.

Date: Wed Sep 26 17:00:37 2018
Total elapsed time: 0.079 seconds.

tnom = 27
temp = 27
method = modified trap
totiter = 2549
traniter = 2545
tranpoints = 1105
accept = 1067
rejected = 38
matrix size = 10
fillins = 0
solver = Normal
Matrix Compiler1:      21 opcodes  0.1/[0.0]/0.1
Matrix Compiler2: 640 bytes object code size  0.1/0.1/[0.0]

