Circuit: * D:\GitHub\ECE2274\Lab7\Pre3.asc

Direct Newton iteration for .op point succeeded.

Date: Wed Sep 26 17:05:43 2018
Total elapsed time: 0.061 seconds.

tnom = 27
temp = 27
method = modified trap
totiter = 2549
traniter = 2545
tranpoints = 1105
accept = 1067
rejected = 38
matrix size = 10
fillins = 0
solver = Normal
Matrix Compiler1: off  [0.0]/0.1/0.1
Matrix Compiler2:      55 opcodes  0.1/[0.0]/0.1

